/*--------------------------------*- C++ -*----------------------------------*\
| =========                 |                                                 |
| \\      /  F ield         | OpenFOAM: The Open Source CFD Toolbox           |
|  \\    /   O peration     | Version:  2.3.0                                 |
|   \\  /    A nd           | Web:      www.OpenFOAM.org                      |
|    \\/     M anipulation  |                                                 |
\*---------------------------------------------------------------------------*/
FoamFile
{
    version     2.0;
    format      ascii;
    class       dictionary;
    location    "constant";
    object      transportProperties;
}
// * * * * * * * * * * * * * * * * * * * * * * * * * * * * * * * * * * * * * //

transportModel  Newtonian;

nu              nu [ 0 2 -1 0 0 0 0 ] 0.9e-6;

Dsalt           Dsalt [ 0 2 -1 0 0 0 0 ] 1600e-12;

Dpart           Dpart [ 0 2 -1 0 0 0 0 ] 1.0e-12;

timeFactor      timeFactor [ 0 0 0 0 0 0 0 ] 1000;

myTol           myTol [ 0 0 0 0 0 0 0 ] 5.0e-9;

numSteps        numSteps [ 0 0 0 0 0 0 0 ] 50;

numIters        numIters [ 0 0 0 0 0 0 0 ] 2000;

minIters        minIters [ 0 0 0 0 0 0 0 ] 10;

gammap          gammap [ 0 2 -1 0 0 0 0 ] 0.76e-9;

// ************************************************************************* //
